<routes>
   <vType id="car"
   			vClass="passenger" length="5" accel="3.5" 
			decel="2.2" sigma="1.0" maxSpeed="10"/>

   <!--<vType id="ev"
	  		vClass="emergency" length="7" accel="5.5" 
			decel="2.2" sigma="1.0"	maxSpeed="20" 
			guiShape="emergency" speedFactor="2.0" minGapLat="0.2"/>-->

	<!--<route id="route_0" edges="e1 e3 e4 e6" />-->
	<!--<flow id="carflow" type="car" beg="0" end="0" number="5" from="e1" to="e8"/>-->
	<!--<flow id="type1" color="1,1,0"  begin="0" end= "7200" vehsPerHour="600" type="car">
		<route edges="e1 e3 e4 e6"/>
		<stop busStop="station1" duration="30"/>
	</flow>-->

	<flow id="type1" color="1,1,0"  begin="0" end= "720000" period="80" type="car">
		<route edges="e1 e3 e4 e6"/>
	</flow>
	<flow id="type2" color="1,1,0"  begin="0" end= "720000" period="80" type="car">
		<route edges="e1 e3 e4 e7"/>
	</flow>
	<flow id="type3" color="1,1,0"  begin="0" end= "720000" period="80" type="car">
		<route edges="e1 e3 e4 e5"/>
	</flow>
	<flow id="type4" color="1,1,0"  begin="0" end= "720000" period="80" type="car">
		<route edges="e1 e2"/>
	</flow>
	<flow id="type5" color="1,1,0"  begin="0" end= "720000" period="80" type="car">
		<route edges="-e2 e3 e4 e6"/>
	</flow>
	<flow id="type6" color="1,1,0"  begin="0" end= "720000" period="80" type="car">
		<route edges="-e2 e3 e4 e7"/>
	</flow>
	<flow id="type7" color="1,1,0"  begin="0" end= "720000" period="80" type="car">
		<route edges="-e2 e3 e4 e5"/>
	</flow>

	<flow id="type-1" color="1,1,0"  begin="0" end= "720000" period="80" type="car">
		<route edges="-e6 -e4 -e3 -e1"/>
	</flow>
	<flow id="type-2" color="1,1,0"  begin="0" end= "720000" period="80" type="car">
		<route edges="-e7 -e4 -e3 -e1"/>
	</flow>
	<flow id="type-3" color="1,1,0"  begin="0" end= "720000" period="80" type="car">
		<route edges="-e5 -e4 -e3 -e1"/>
	</flow>
	<flow id="type-4" color="1,1,0"  begin="0" end= "720000" period="80" type="car">
		<route edges="-e2 -e1"/>
	</flow>
	<flow id="type-5" color="1,1,0"  begin="0" end= "720000" period="80" type="car">
		<route edges="-e6 -e4 -e3 e2"/>
	</flow>
	<flow id="type-6" color="1,1,0"  begin="0" end= "720000" period="80" type="car">
		<route edges="-e7 -e4 -e3 e2"/>
	</flow>
	<flow id="type-7" color="1,1,0"  begin="0" end= "720000" period="80" type="car">
		<route edges="-e5 -e4 -e3 e2"/>
	</flow>


	<!--<flow id="evflow" type="ev" beg="0" end="0" number="1" from="e1" to="e8"/>-->

	<!--<vehicle id="0" type="car" route="route_0" depart="0"/>-->
	<!--<vehicle id="1" type="car" route="route_0" depart="3"/>-->
	<!--<vehicle id="2" type="car" route="route_0" depart="6"/>-->
	<!--<vehicle id="3" type="car" route="route_0" depart="9"/>-->
	<!--<vehicle id="4" type="car" route="route_0" depart="12"/>-->

	<!--<vehicle id="ev_0" type="ev" route="route_0" depart="16"/>-->

</routes>
